src/examples/case14_twoarea/two_area_08pulim_1_5/results/res_branch_2.csv
branch,from_bus,to_bus,X,B,G,Bfr,Bto,p_from,p_to,q_from,q_to,p_loss,q_loss,s_from,s_to,rate_a,ang_deg,angmin,angmax
7,4,5,0.07018333333333335,-13.750861129582134,2.615635185180549,0.0,0.0,-0.24304516784812485,0.2438638174218139,-0.08269128195854326,0.08699506891834939,0.0008186495736890453,0.004303786959806127,0.25672709581629766,0.2589164024615825,0.8,-0.8433109221366762,-60.0001403060998,60.0001403060998
4,2,4,0.2938666666666667,-3.274849999726149,0.6475778135801491,0.028333333333333335,0.028333333333333335,0.3146282021619679,-0.30923710645732305,-0.06729823873291607,0.03346647319637968,0.005391095704644855,-0.03383176553653639,0.32174517639309635,0.31104275082101135,0.8,5.033216585117069,-60.0001403060998,60.0001403060998
2,1,5,0.37173333333333336,-2.634446441553089,0.3829065851070123,0.041,0.041,0.4267938092267479,-0.4180302490623476,-0.03643603273474541,0.005841368490076096,0.00876356016440033,-0.030594664244669313,0.4283462852362853,0.4180710594109155,0.8,8.20300584758278,-60.0001403060998,60.0001403060998
3,2,3,0.32995,-2.9705137433791546,0.423047252012082,0.0365,0.0365,0.3446620433689285,-0.33949236472505445,-0.02567562675853746,-0.015904900642123458,0.0051696786438740205,-0.04158052740066091,0.3456170741567738,0.3398647253997467,0.8,6.084607243216103,-60.0001403060998,60.0001403060998
5,2,5,0.28980000000000006,-3.32235273589815,0.6528916090731525,0.028833333333333336,0.028833333333333336,0.26202323715157316,-0.2582079744218794,-0.09279974795472552,0.04951048273301889,0.003815262729693736,-0.04328926522170663,0.27797116761968343,0.26291185967070124,0.8,4.189905662980393,-60.0001403060998,60.0001403060998
6,3,4,0.28505,-3.324436966625986,0.7815138436541214,0.010666666666666668,0.010666666666666668,-0.07350762529685462,0.07388114297325761,-0.032712051971669286,0.01161277740328508,0.00037351767640299294,-0.021099274568384205,0.0804577486695966,0.07478823360698647,0.8,-1.0513906580990349,-60.0001403060998,60.0001403060998
1,1,2,0.09861666666666669,-9.763222778777191,1.918653954227162,0.044000000000000004,0.044000000000000004,0.7991698356679255,-0.7880267353073228,0.03643602277332758,-0.07675763952693831,0.011143100360602731,-0.040321616753610734,0.8000000062481485,0.7917561940299961,0.8,4.013100184602388,-60.0001403060998,60.0001403060998
